FoamFile {
    version         1.4;
    format          ascii;

    root            "";
    case            "";
    instance        "constant";
    local           "";

    class           dictionary;
    object          gmtDict;
}

projection "X1i/1.47i";
projection2D XZ;
separateLegend true;
plotBoundaryDots false;

FieldsToPlot (
    [theta_diff rawValues -1.0 1.0 0.1 "$GMTU/colours/red_white_blue.cpt"]
);

region "47.5e3/55e3/0/1.2e3";
boundaryMarks "5e3/500wSen";
