FoamFile {
    version         1.4;
    format          ascii;

    root            "";
    case            "";
    instance        "constant";
    local           "";

    class           dictionary;
    object          gmtDict;
}

projection "X1.8i/1.5i";
projection2D XZ;
separateLegend true;

FieldsToPlot (
    [theta_diff rawValues -1.0 1.0 0.1 "$GMTU/colours/red_white_blue.cpt"]
);

region "-20e3/20e3/0/12e3";
boundaryMarks "10000/2000WSen";
